Circuit: * C:\Users\Gabe\Documents\GitHub\Bus-Loop-Display\Board-electronics\Control Board\Board Electronics.cir

