Circuit: * C:\Users\Gabe\Documents\GitHub\Bus-Loop-Display\Board-electronics\Control Board\Draft1.asc

Fatal Error: Unknown node in .NOISE card: vout
